Arguments: 
  /usr/local/Cellar/node/14.8.0/bin/node /usr/local/Cellar/yarn/1.22.4/libexec/bin/yarn.js add @serverless/typescript

PATH: 
  /usr/local/bin:/usr/bin:/bin:/usr/sbin:/sbin:/Library/Apple/usr/bin:/Users/gaudencioteves/Library/Android/sdk/emulator:/Users/gaudencioteves/Library/Android/sdk/tools:/Users/gaudencioteves/Library/Android/sdk/tools/bin:/Users/gaudencioteves/Library/Android/sdk/platform-tools:/Users/gaudencioteves/go/bin:/usr/local/opt/go/libexec/bin:/Users/gaudencioteves/Library/Android/sdk/emulator:/Users/gaudencioteves/Library/Android/sdk/tools:/Users/gaudencioteves/Library/Android/sdk/tools/bin:/Users/gaudencioteves/Library/Android/sdk/platform-tools:/Users/gaudencioteves/go/bin:/usr/local/opt/go/libexec/bin

Yarn version: 
  1.22.4

Node version: 
  14.8.0

Platform: 
  darwin x64

Trace: 
  Error: Client network socket disconnected before secure TLS connection was established
      at connResetException (internal/errors.js:612:14)
      at TLSSocket.onConnectEnd (_tls_wrap.js:1544:19)
      at TLSSocket.emit (events.js:326:22)
      at endReadableNT (_stream_readable.js:1244:12)
      at processTicksAndRejections (internal/process/task_queues.js:80:21)

npm manifest: 
  {
    "name": "ts-1",
    "version": "1.0.0",
    "description": "Serverless webpack example using Typescript",
    "main": "handler.js",
    "scripts": {
      "test": "NODE_ENV=test ./node_modules/.bin/jest --ci --verbose",
      "lint": "eslint . --ext .js,.jsx,.ts,.tsx",
      "buildtest": "tsc --noEmit"
    },
    "dependencies": {
      "@dazn/lambda-powertools-cloudwatchevents-client": "^1.26.0",
      "@dazn/lambda-powertools-correlation-ids": "^1.24.1",
      "@dazn/lambda-powertools-dynamodb-client": "^1.26.0",
      "@dazn/lambda-powertools-kinesis-client": "^1.26.0",
      "@dazn/lambda-powertools-lambda-client": "^1.26.0",
      "@dazn/lambda-powertools-logger": "^1.24.1",
      "@dazn/lambda-powertools-pattern-basic": "^1.27.0",
      "@dazn/lambda-powertools-sns-client": "^1.26.0",
      "@dazn/lambda-powertools-sqs-client": "^1.26.0",
      "@types/jest": "^26.0.15",
      "aws-lambda": "^1.0.6",
      "aws-sdk": "^2.799.0",
      "source-map-support": "^0.5.19"
    },
    "devDependencies": {
      "@babel/core": "^7.12.9",
      "@babel/preset-env": "^7.12.7",
      "@babel/preset-typescript": "^7.12.7",
      "@serverless/typescript": "^2.12.0",
      "@types/aws-lambda": "^8.10.64",
      "@types/node": "^14.14.6",
      "@typescript-eslint/eslint-plugin": "^4.8.2",
      "@typescript-eslint/parser": "^4.8.2",
      "babel-jest": "^26.6.3",
      "eslint": "^7.14.0",
      "eslint-config-airbnb-base": "^14.2.1",
      "eslint-import-resolver-alias": "^1.1.2",
      "eslint-plugin-import": "^2.22.1",
      "eslint-plugin-module-resolver": "^1.1.0",
      "fork-ts-checker-webpack-plugin": "^6.0.0",
      "jest": "^26.6.3",
      "serverless-create-global-dynamodb-table": "^3.0.0",
      "serverless-iam-roles-per-function": "^2.0.2",
      "serverless-offline": "^6.8.0",
      "serverless-prune-plugin": "^1.4.3",
      "serverless-webpack": "^5.2.0",
      "ts-loader": "^8.0.10",
      "ts-node": "^9.0.0",
      "typescript": "^4.0.5",
      "typescript-eslint": "0.0.1-alpha.0",
      "webpack": "^5.4.0",
      "webpack-node-externals": "^2.5.2"
    },
    "author": "The serverless webpack authors (https://github.com/elastic-coders/serverless-webpack)",
    "license": "MIT"
  }

yarn manifest: 
  No manifest

Lockfile: 
  No lockfile
